704
  -OEChem-10300603532D

 62 64  0     1  0  0  0  0  0999 V2000
    8.4752    2.1223    0.0000 P   0  0  3  0  0  0  0  0  0  0  0  0
   10.1980    2.3004    0.0000 P   0  0  3  0  0  0  0  0  0  0  0  0
    5.9405    0.3579    0.0000 O   0  0  0  0  0  0  0  0  0  0  0  0
    3.4025    0.8622    0.0000 O   0  0  0  0  0  0  0  0  0  0  0  0
    4.6844    2.6201    0.0000 O   0  0  0  0  0  0  0  0  0  0  0  0
    7.6651    1.5359    0.0000 O   0  0  0  0  0  0  0  0  0  0  0  0
    9.2852    2.7087    0.0000 O   0  0  0  0  0  0  0  0  0  0  0  0
   11.1109    1.8921    0.0000 O   0  0  0  0  0  0  0  0  0  0  0  0
    9.0615    1.3123    0.0000 O   0  0  0  0  0  0  0  0  0  0  0  0
   13.5410    3.6512    0.0000 O   0  0  0  0  0  0  0  0  0  0  0  0
    7.8888    2.9323    0.0000 O   0  0  0  0  0  0  0  0  0  0  0  0
   12.9366    1.0754    0.0000 O   0  0  0  0  0  0  0  0  0  0  0  0
   14.6594    1.2535    0.0000 O   0  0  0  0  0  0  0  0  0  0  0  0
   10.6063    3.2132    0.0000 O   0  0  0  0  0  0  0  0  0  0  0  0
    9.7897    1.3875    0.0000 O   0  0  0  0  0  0  0  0  0  0  0  0
    4.6783   -0.9000    0.0000 N   0  0  0  0  0  0  0  0  0  0  0  0
    4.6783   -2.5095    0.0000 N   0  0  0  0  0  0  0  0  0  0  0  0
    2.8660   -0.7048    0.0000 N   0  0  0  0  0  0  0  0  0  0  0  0
    2.0000   -2.2048    0.0000 N   0  0  0  0  0  0  0  0  0  0  0  0
    2.8660   -3.7048    0.0000 N   0  0  0  0  0  0  0  0  0  0  0  0
   16.2795    2.4263    0.0000 N   0  0  0  0  0  0  0  0  0  0  0  0
    4.4025    0.8605    0.0000 C   0  0  3  0  0  0  0  0  0  0  0  0
    4.9917    1.6685    0.0000 C   0  0  3  0  0  0  0  0  0  0  0  0
    4.9889    0.0505    0.0000 C   0  0  3  0  0  0  0  0  0  0  0  0
    5.9423    1.3579    0.0000 C   0  0  3  0  0  0  0  0  0  0  0  0
    6.7523    1.9442    0.0000 C   0  0  0  0  0  0  0  0  0  0  0  0
    3.7321   -1.2048    0.0000 C   0  0  0  0  0  0  0  0  0  0  0  0
    5.2619   -1.7048    0.0000 C   0  0  0  0  0  0  0  0  0  0  0  0
    3.7321   -2.2048    0.0000 C   0  0  0  0  0  0  0  0  0  0  0  0
    2.8660   -2.7048    0.0000 C   0  0  0  0  0  0  0  0  0  0  0  0
   13.6438    2.6565    0.0000 C   0  0  3  0  0  0  0  0  0  0  0  0
   12.8337    2.0701    0.0000 C   0  0  3  0  0  0  0  0  0  0  0  0
   14.5566    2.2482    0.0000 C   0  0  3  0  0  0  0  0  0  0  0  0
   11.9209    2.4784    0.0000 C   0  0  0  0  0  0  0  0  0  0  0  0
    2.0000   -1.2048    0.0000 C   0  0  0  0  0  0  0  0  0  0  0  0
   15.3667    2.8346    0.0000 C   0  0  0  0  0  0  0  0  0  0  0  0
    4.1220    1.4134    0.0000 H   0  0  0  0  0  0  0  0  0  0  0  0
    5.4309    2.1062    0.0000 H   0  0  0  0  0  0  0  0  0  0  0  0
    5.4266   -0.3887    0.0000 H   0  0  0  0  0  0  0  0  0  0  0  0
    6.4942    1.0754    0.0000 H   0  0  0  0  0  0  0  0  0  0  0  0
    7.0999    2.4576    0.0000 H   0  0  0  0  0  0  0  0  0  0  0  0
    6.3070    2.3757    0.0000 H   0  0  0  0  0  0  0  0  0  0  0  0
    3.0935    1.3997    0.0000 H   0  0  0  0  0  0  0  0  0  0  0  0
    5.1000    3.0801    0.0000 H   0  0  0  0  0  0  0  0  0  0  0  0
    5.8819   -1.7048    0.0000 H   0  0  0  0  0  0  0  0  0  0  0  0
   13.0778    2.9097    0.0000 H   0  0  0  0  0  0  0  0  0  0  0  0
   13.3997    1.8170    0.0000 H   0  0  0  0  0  0  0  0  0  0  0  0
   14.0544    1.8846    0.0000 H   0  0  0  0  0  0  0  0  0  0  0  0
   12.2685    2.9918    0.0000 H   0  0  0  0  0  0  0  0  0  0  0  0
   11.4757    2.9099    0.0000 H   0  0  0  0  0  0  0  0  0  0  0  0
    1.4631   -0.8948    0.0000 H   0  0  0  0  0  0  0  0  0  0  0  0
   15.7142    3.3480    0.0000 H   0  0  0  0  0  0  0  0  0  0  0  0
   14.9214    3.2660    0.0000 H   0  0  0  0  0  0  0  0  0  0  0  0
    8.8084    0.7463    0.0000 H   0  0  0  0  0  0  0  0  0  0  0  0
    2.3291   -4.0148    0.0000 H   0  0  0  0  0  0  0  0  0  0  0  0
    3.4030   -4.0148    0.0000 H   0  0  0  0  0  0  0  0  0  0  0  0
   14.0432    4.0148    0.0000 H   0  0  0  0  0  0  0  0  0  0  0  0
   13.5025    0.8223    0.0000 H   0  0  0  0  0  0  0  0  0  0  0  0
   15.2254    1.0003    0.0000 H   0  0  0  0  0  0  0  0  0  0  0  0
   16.7817    2.7898    0.0000 H   0  0  0  0  0  0  0  0  0  0  0  0
   16.3432    1.8095    0.0000 H   0  0  0  0  0  0  0  0  0  0  0  0
   10.2428    3.7154    0.0000 H   0  0  0  0  0  0  0  0  0  0  0  0
  1  6  1  0  0  0  0
  1  7  1  0  0  0  0
  1  9  1  0  0  0  0
  1 11  2  0  0  0  0
  2  7  1  0  0  0  0
  2  8  1  0  0  0  0
  2 14  1  0  0  0  0
  2 15  2  0  0  0  0
  3 24  1  0  0  0  0
  3 25  1  0  0  0  0
  4 22  1  0  0  0  0
  4 43  1  0  0  0  0
  5 23  1  0  0  0  0
  5 44  1  0  0  0  0
  6 26  1  0  0  0  0
  8 34  1  0  0  0  0
  9 54  1  0  0  0  0
 10 31  1  0  0  0  0
 10 57  1  0  0  0  0
 12 32  1  0  0  0  0
 12 58  1  0  0  0  0
 13 33  1  0  0  0  0
 13 59  1  0  0  0  0
 14 62  1  0  0  0  0
 16 24  1  0  0  0  0
 16 27  1  0  0  0  0
 16 28  1  0  0  0  0
 17 28  2  0  0  0  0
 17 29  1  0  0  0  0
 18 27  2  0  0  0  0
 18 35  1  0  0  0  0
 19 30  1  0  0  0  0
 19 35  2  0  0  0  0
 20 30  1  0  0  0  0
 20 55  1  0  0  0  0
 20 56  1  0  0  0  0
 21 36  1  0  0  0  0
 21 60  1  0  0  0  0
 21 61  1  0  0  0  0
 22 23  1  0  0  0  0
 22 24  1  0  0  0  0
 22 37  1  0  0  0  0
 23 25  1  0  0  0  0
 23 38  1  0  0  0  0
 24 39  1  0  0  0  0
 25 26  1  0  0  0  0
 25 40  1  0  0  0  0
 26 41  1  0  0  0  0
 26 42  1  0  0  0  0
 27 29  1  0  0  0  0
 28 45  1  0  0  0  0
 29 30  2  0  0  0  0
 31 32  1  0  0  0  0
 31 33  1  0  0  0  0
 31 46  1  0  0  0  0
 32 34  1  0  0  0  0
 32 47  1  0  0  0  0
 33 36  1  0  0  0  0
 33 48  1  0  0  0  0
 34 49  1  0  0  0  0
 34 50  1  0  0  0  0
 35 51  1  0  0  0  0
 36 52  1  0  0  0  0
 36 53  1  0  0  0  0
M  END
> <PUBCHEM_COMPOUND_CID>
704

> <PUBCHEM_CACTVS_HBOND_ACCEPTOR>
19

> <PUBCHEM_CACTVS_HBOND_DONOR>
9

> <PUBCHEM_CACTVS_ROTATABLE_BOND>
12

> <PUBCHEM_CACTVS_SUBSKEYS>
AAADceBzvAMAAAAAAAAAAAAAAAAAAWJAAAAsAAAAAAAAAFgB+AAAHgAQCCAACBzhlwYF8L9MFxCgQQZhZICAgC0REKABUKAoVBCDWAJAyEAeRAgPEALTACDwMAIAAAAAAAAAAAAAAAAAAAAAAAAAAAAAAA==

> <PUBCHEM_IUPAC_OPENEYE_NAME>
[[5-(6-aminopurin-9-yl)-3,4-dihydroxy-tetrahydrofuran-2-yl]methoxy-hydroxy-phosphoryl]oxy-(5-amino-2,3,4-trihydroxy-pentoxy)phosphinic acid

> <PUBCHEM_IUPAC_CAS_NAME>
[[5-(6-aminopurin-9-yl)-3,4-dihydroxy-tetrahydrofuran-2-yl]methoxy-hydroxy-phosphoryl]oxy-(5-amino-2,3,4-trihydroxy-pentoxy)phosphinic acid

> <PUBCHEM_IUPAC_NAME>
[[5-(6-aminopurin-9-yl)-3,4-dihydroxy-oxolan-2-yl]methoxy-hydroxy-phosphoryl]oxy-(5-amino-2,3,4-trihydroxy-pentoxy)phosphinic acid

> <PUBCHEM_IUPAC_SYSTEMATIC_NAME>
[[5-(6-aminopurin-9-yl)-3,4-dihydroxy-oxolan-2-yl]methoxy-hydroxy-phosphoryl]oxy-(5-amino-2,3,4-trihydroxy-pentoxy)phosphinic acid

> <PUBCHEM_IUPAC_TRADITIONAL_NAME>
[[5-(6-aminopurin-9-yl)-3,4-dihydroxy-tetrahydrofuran-2-yl]methoxy-hydroxy-phosphoryl]oxy-(5-amino-2,3,4-trihydroxy-pentoxy)phosphinic acid

> <PUBCHEM_NIST_INCHI>
InChI=1/C15H26N6O13P2/c16-1-6(22)10(24)7(23)2-31-35(27,28)34-36(29,30)32-3-8-11(25)12(26)15(33-8)21-5-20-9-13(17)18-4-19-14(9)21/h4-8,10-12,15,22-26H,1-3,16H2,(H,27,28)(H,29,30)(H2,17,18,19)/f/h27,29H,17H2

> <PUBCHEM_CACTVS_XLOGP>
-6.577

> <PUBCHEM_CACTVS_EXACT_MASS>
560.103

> <PUBCHEM_OPENEYE_MF>
C15H26N6O13P2

> <PUBCHEM_OPENEYE_MW>
560.347

> <PUBCHEM_OPENEYE_CAN_SMILES>
C1=NC2=C(C(=N1)N)N=CN2C3C(C(C(O3)COP(=O)(O)OP(=O)(O)OCC(C(C(CN)O)O)O)O)O

> <PUBCHEM_OPENEYE_ISO_SMILES>
C1=NC2=C(C(=N1)N)N=CN2C3C(C(C(O3)COP(=O)(O)OP(=O)(O)OCC(C(C(CN)O)O)O)O)O

> <PUBCHEM_CACTVS_TPSA>
308.31

> <PUBCHEM_OPENEYE_MONOISOTOPICWT>
560.103

> <PUBCHEM_TOTAL_CHARGE>
0

> <PUBCHEM_HEAVY_ATOM_COUNT>
36

> <PUBCHEM_ATOM_DEF_STEREO_COUNT>
0

> <PUBCHEM_ATOM_UDEF_STEREO_COUNT>
7

> <PUBCHEM_BOND_DEF_STEREO_COUNT>
0

> <PUBCHEM_BOND_UDEF_STEREO_COUNT>
0

> <PUBCHEM_ISOTOPIC_ATOM_COUNT>
0

> <PUBCHEM_COMPONENT_COUNT>
1

> <PUBCHEM_CACTVS_TAUTO_COUNT>
3

> <PUBCHEM_BONDANNOTATIONS>
31  10  3
32  12  3
33  13  3
24  16  3
16  27  8
16  28  8
17  28  8
17  29  8
18  27  8
18  35  8
19  30  8
19  35  8
25  26  3
27  29  8
29  30  8
22  4  3
23  5  3

$$$$

