5591
  -OEChem-11230710362D

 58 61  0     1  0  0  0  0  0999 V2000
   13.9366    0.5956    0.0000 S   0  0  0  0  0  0  0  0  0  0  0  0
    6.0290   -1.7278    0.0000 O   0  0  0  0  0  0  0  0  0  0  0  0
    8.4383   -0.3537    0.0000 O   0  0  0  0  0  0  0  0  0  0  0  0
    2.5369    0.3068    0.0000 O   0  0  0  0  0  0  0  0  0  0  0  0
   11.5611    1.6217    0.0000 O   0  0  0  0  0  0  0  0  0  0  0  0
   15.0634    1.9762    0.0000 O   0  0  0  0  0  0  0  0  0  0  0  0
   13.2842    2.0763    0.0000 N   0  0  0  0  0  0  0  0  0  0  0  0
    6.9350   -1.2140    0.0000 C   0  0  3  0  0  0  0  0  0  0  0  0
    6.9350   -0.1723    0.0000 C   0  0  0  0  0  0  0  0  0  0  0  0
    6.0290    0.3415    0.0000 C   0  0  0  0  0  0  0  0  0  0  0  0
    5.1350   -0.1932    0.0000 C   0  0  0  0  0  0  0  0  0  0  0  0
    5.1350   -1.1932    0.0000 C   0  0  0  0  0  0  0  0  0  0  0  0
    7.9350   -1.2178    0.0000 C   0  0  0  0  0  0  0  0  0  0  0  0
    7.4317   -2.0819    0.0000 C   0  0  0  0  0  0  0  0  0  0  0  0
    4.2690    0.3068    0.0000 C   0  0  0  0  0  0  0  0  0  0  0  0
    4.2690   -1.6932    0.0000 C   0  0  0  0  0  0  0  0  0  0  0  0
    3.4030   -1.1932    0.0000 C   0  0  0  0  0  0  0  0  0  0  0  0
    3.4030   -0.1932    0.0000 C   0  0  0  0  0  0  0  0  0  0  0  0
    4.2690    1.3068    0.0000 C   0  0  0  0  0  0  0  0  0  0  0  0
    4.2690   -2.6932    0.0000 C   0  0  0  0  0  0  0  0  0  0  0  0
    2.5369   -1.6932    0.0000 C   0  0  0  0  0  0  0  0  0  0  0  0
    9.4383   -0.3576    0.0000 C   0  0  0  0  0  0  0  0  0  0  0  0
   11.4383   -0.3653    0.0000 C   0  0  0  0  0  0  0  0  0  0  0  0
    9.9350   -1.2255    0.0000 C   0  0  0  0  0  0  0  0  0  0  0  0
    9.9417    0.5065    0.0000 C   0  0  0  0  0  0  0  0  0  0  0  0
   12.4383   -0.3692    0.0000 C   0  0  0  0  0  0  0  0  0  0  0  0
   12.9417    0.4949    0.0000 C   0  0  3  0  0  0  0  0  0  0  0  0
   10.9350   -1.2294    0.0000 C   0  0  0  0  0  0  0  0  0  0  0  0
   10.9417    0.5026    0.0000 C   0  0  0  0  0  0  0  0  0  0  0  0
   12.5384    1.4100    0.0000 C   0  0  0  0  0  0  0  0  0  0  0  0
   14.1483    1.5730    0.0000 C   0  0  0  0  0  0  0  0  0  0  0  0
    7.5459   -0.2784    0.0000 H   0  0  0  0  0  0  0  0  0  0  0  0
    7.1441    0.4114    0.0000 H   0  0  0  0  0  0  0  0  0  0  0  0
    6.4226    0.8205    0.0000 H   0  0  0  0  0  0  0  0  0  0  0  0
    5.6244    0.8113    0.0000 H   0  0  0  0  0  0  0  0  0  0  0  0
    8.5168   -1.4321    0.0000 H   0  0  0  0  0  0  0  0  0  0  0  0
    7.8250   -1.8280    0.0000 H   0  0  0  0  0  0  0  0  0  0  0  0
    7.9698   -1.7740    0.0000 H   0  0  0  0  0  0  0  0  0  0  0  0
    7.7396   -2.6200    0.0000 H   0  0  0  0  0  0  0  0  0  0  0  0
    6.8936   -2.3898    0.0000 H   0  0  0  0  0  0  0  0  0  0  0  0
    4.8890    1.3068    0.0000 H   0  0  0  0  0  0  0  0  0  0  0  0
    4.2690    1.9268    0.0000 H   0  0  0  0  0  0  0  0  0  0  0  0
    3.6490    1.3068    0.0000 H   0  0  0  0  0  0  0  0  0  0  0  0
    3.6490   -2.6932    0.0000 H   0  0  0  0  0  0  0  0  0  0  0  0
    4.2690   -3.3132    0.0000 H   0  0  0  0  0  0  0  0  0  0  0  0
    4.8890   -2.6932    0.0000 H   0  0  0  0  0  0  0  0  0  0  0  0
    2.2269   -1.1562    0.0000 H   0  0  0  0  0  0  0  0  0  0  0  0
    2.0000   -2.0032    0.0000 H   0  0  0  0  0  0  0  0  0  0  0  0
    2.8469   -2.2301    0.0000 H   0  0  0  0  0  0  0  0  0  0  0  0
    2.0000   -0.0032    0.0000 H   0  0  0  0  0  0  0  0  0  0  0  0
   13.0201   -0.5834    0.0000 H   0  0  0  0  0  0  0  0  0  0  0  0
   12.3283   -0.9793    0.0000 H   0  0  0  0  0  0  0  0  0  0  0  0
    9.6229   -1.7613    0.0000 H   0  0  0  0  0  0  0  0  0  0  0  0
    9.6337    1.0446    0.0000 H   0  0  0  0  0  0  0  0  0  0  0  0
   13.2773   -0.0263    0.0000 H   0  0  0  0  0  0  0  0  0  0  0  0
   11.2429   -1.7675    0.0000 H   0  0  0  0  0  0  0  0  0  0  0  0
   11.2537    1.0384    0.0000 H   0  0  0  0  0  0  0  0  0  0  0  0
   13.2217    2.6932    0.0000 H   0  0  0  0  0  0  0  0  0  0  0  0
  1 27  1  0  0  0  0
  1 31  1  0  0  0  0
  2  8  1  0  0  0  0
  2 12  1  0  0  0  0
  3 13  1  0  0  0  0
  3 22  1  0  0  0  0
  4 18  1  0  0  0  0
  4 50  1  0  0  0  0
  5 30  2  0  0  0  0
  6 31  2  0  0  0  0
  7 30  1  0  0  0  0
  7 31  1  0  0  0  0
  7 58  1  0  0  0  0
  8  9  1  0  0  0  0
  8 13  1  0  0  0  0
  8 14  1  0  0  0  0
  9 10  1  0  0  0  0
  9 32  1  0  0  0  0
  9 33  1  0  0  0  0
 10 11  1  0  0  0  0
 10 34  1  0  0  0  0
 10 35  1  0  0  0  0
 11 12  2  0  0  0  0
 11 15  1  0  0  0  0
 12 16  1  0  0  0  0
 13 36  1  0  0  0  0
 13 37  1  0  0  0  0
 14 38  1  0  0  0  0
 14 39  1  0  0  0  0
 14 40  1  0  0  0  0
 15 18  2  0  0  0  0
 15 19  1  0  0  0  0
 16 17  2  0  0  0  0
 16 20  1  0  0  0  0
 17 18  1  0  0  0  0
 17 21  1  0  0  0  0
 19 41  1  0  0  0  0
 19 42  1  0  0  0  0
 19 43  1  0  0  0  0
 20 44  1  0  0  0  0
 20 45  1  0  0  0  0
 20 46  1  0  0  0  0
 21 47  1  0  0  0  0
 21 48  1  0  0  0  0
 21 49  1  0  0  0  0
 22 24  2  0  0  0  0
 22 25  1  0  0  0  0
 23 26  1  0  0  0  0
 23 28  2  0  0  0  0
 23 29  1  0  0  0  0
 24 28  1  0  0  0  0
 24 53  1  0  0  0  0
 25 29  2  0  0  0  0
 25 54  1  0  0  0  0
 26 27  1  0  0  0  0
 26 51  1  0  0  0  0
 26 52  1  0  0  0  0
 27 30  1  0  0  0  0
 27 55  1  0  0  0  0
 28 56  1  0  0  0  0
 29 57  1  0  0  0  0
M  END
> <PUBCHEM_COMPOUND_CID>
5591

> <PUBCHEM_COMPOUND_CANONICALIZED>
1

> <PUBCHEM_CACTVS_COMPLEXITY>
681

> <PUBCHEM_CACTVS_HBOND_ACCEPTOR>
5

> <PUBCHEM_CACTVS_HBOND_DONOR>
2

> <PUBCHEM_CACTVS_ROTATABLE_BOND>
5

> <PUBCHEM_CACTVS_SUBSKEYS>
AAADceB6OABAAAAAAAAAAAAAAAAAAWAAAAA0YIAAAAAAAACRQAAAHgQQCAAADESl2AKyBoLABgiIAiFSEAACCABgIBAIiAEGCIgNJjKmsRqGeCCk1DEKuAfYyPCO4QADAAAYAADCAAYAADAAAAAAAAAAAA==

> <PUBCHEM_IUPAC_OPENEYE_NAME>
5-[[4-[(6-hydroxy-2,5,7,8-tetramethyl-chroman-2-yl)methoxy]phenyl]methyl]thiazolidine-2,4-dione

> <PUBCHEM_IUPAC_CAS_NAME>
5-[[4-[(6-hydroxy-2,5,7,8-tetramethyl-2-chromanyl)methoxy]phenyl]methyl]thiazolidine-2,4-dione

> <PUBCHEM_IUPAC_NAME>
5-[[4-[(6-hydroxy-2,5,7,8-tetramethylchroman-2-yl)methoxy]phenyl]methyl]-1,3-thiazolidine-2,4-dione

> <PUBCHEM_IUPAC_SYSTEMATIC_NAME>
5-[[4-[(6-hydroxy-2,5,7,8-tetramethyl-chroman-2-yl)methoxy]phenyl]methyl]-1,3-thiazolidine-2,4-dione

> <PUBCHEM_IUPAC_TRADITIONAL_NAME>
5-[4-[(6-hydroxy-2,5,7,8-tetramethyl-chroman-2-yl)methoxy]benzyl]thiazolidine-2,4-quinone

> <PUBCHEM_NIST_INCHI>
InChI=1/C24H27NO5S/c1-13-14(2)21-18(15(3)20(13)26)9-10-24(4,30-21)12-29-17-7-5-16(6-8-17)11-19-22(27)25-23(28)31-19/h5-8,19,26H,9-12H2,1-4H3,(H,25,27,28)/f/h25H

> <PUBCHEM_CACTVS_XLOGP>
3.6

> <PUBCHEM_EXACT_MASS>
441.160994

> <PUBCHEM_MOLECULAR_FORMULA>
C24H27NO5S

> <PUBCHEM_MOLECULAR_WEIGHT>
441.53988

> <PUBCHEM_OPENEYE_CAN_SMILES>
CC1=C(C(=C2CCC(OC2=C1C)(C)COC3=CC=C(C=C3)CC4C(=O)NC(=O)S4)C)O

> <PUBCHEM_OPENEYE_ISO_SMILES>
CC1=C(C(=C2CCC(OC2=C1C)(C)COC3=CC=C(C=C3)CC4C(=O)NC(=O)S4)C)O

> <PUBCHEM_CACTVS_TPSA>
84.9

> <PUBCHEM_MONOISOTOPIC_WEIGHT>
441.160994

> <PUBCHEM_TOTAL_CHARGE>
0

> <PUBCHEM_HEAVY_ATOM_COUNT>
31

> <PUBCHEM_ATOM_DEF_STEREO_COUNT>
0

> <PUBCHEM_ATOM_UDEF_STEREO_COUNT>
2

> <PUBCHEM_BOND_DEF_STEREO_COUNT>
0

> <PUBCHEM_BOND_UDEF_STEREO_COUNT>
0

> <PUBCHEM_ISOTOPIC_ATOM_COUNT>
0

> <PUBCHEM_COMPONENT_COUNT>
1

> <PUBCHEM_CACTVS_TAUTO_COUNT>
27

> <PUBCHEM_BONDANNOTATIONS>
11  12  8
11  15  8
12  16  8
15  18  8
16  17  8
17  18  8
22  24  8
22  25  8
23  28  8
23  29  8
24  28  8
25  29  8
27  26  3
8  14  3

$$$$

